/*--------------------------------*- C++ -*----------------------------------*\
| =========                 |                                                 |
| \\      /  F ield         | OpenFOAM: The Open Source CFD Toolbox           |
|  \\    /   O peration     | Version:  v1906                                 |
|   \\  /    A nd           | Web:      www.OpenFOAM.com                      |
|    \\/     M anipulation  |                                                 |
\*---------------------------------------------------------------------------*/
FoamFile
{
    version     2.0;
    format      ascii;
    class       dictionary;
    object      controlDict;
}
// * * * * * * * * * * * * * * * * * * * * * * * * * * * * * * * * * * * * * //

libs (turbulenceModelSchemes);

application     rhoSimpleFoam;

startFrom       latestTime;

startTime       0;

stopAt          endTime;

endTime         500;

deltaT          1;

writeControl    timeStep;

writeInterval   100;

purgeWrite      3;

writeFormat     ascii;

writePrecision   8;

writeCompression off;

timeFormat      general;

timePrecision   8;

runTimeModifiable true;

functions
{
    fileUpdate
    {
        type            timeActivatedFileUpdate;
        functionObjectLibs ("libutilityFunctionObjects.so");
        writeControl    timeStep;
        writeInterval   1;
        fileToUpdate    "$FOAM_CASE/system/fvSchemes";

        timeVsFile
        (
            ( -1   "$FOAM_CASE/system/fvSchemes_1"  )
            (499   "$FOAM_CASE/system/fvSchemes_2" )
        );
    }

    fieldMinMax
    {
        type                fieldMinMax;
        functionObjectLibs  ("libfieldFunctionObjects.so");
        log                 yes;
        outputControl       timeStep;
        outputInterval      1;
        mode                magnitude;
        fields              ( U p T);
    }

    #include "fieldAverage"
}

// ************************************************************************* //
