/*--------------------------------*- C++ -*----------------------------------*\
| =========                   |                                               |
| \\      /  F ield         | OpenFOAM: The Open Source CFD Toolbox           |
|  \\    /   O peration     | Version:  2012                                  |
|   \\  /    A nd           | Web:      http://www.OpenFOAM.com			      |
|    \\/     M anipulation  |                                                 |
\*---------------------------------------------------------------------------*/

FoamFile
{
        version	2012;
        format      ascii;
        class       dictionary;
        object	snappyHexMeshDict;
}
// * * * * * * * * * * * * * * * * * * * * * * * * * * * * * * * * * * * * * //


castellatedMesh true;
snap            true;
addLayers	 false;


geometry
{
	terrain_wadayama.stl
	{
		type triSurfaceMesh;
		name	terrain_wadayama ;
		regions
		{
			roofs
			{
				name	roof;
			}
			walls
			{
				name	wall;
			}
			grounds
			{
				name	ground;
			}
		}
	}
	BoxRefinement_1
	{
		type searchableBox ;
		min	( 46989.1 -72981.6 0 );
		max	( 46997.3 -72979.6 80 );
	}
	BoxRefinement_2
	{
		type searchableBox ;
		min	( 46976.7 -73024.9 0 );
		max	( 46979.3 -73019.9 80 );
	}
	BoxRefinement_3
	{
		type searchableBox ;
		min	( 47021.4 -73132.3 0 );
		max	( 47025.6 -73125.1 80 );
	}
	BoxRefinement_4
	{
		type searchableBox ;
		min	( 47047.7 -73011.6 0 );
		max	( 47052.1 -73006.4 80 );
	}
	BoxRefinement_5
	{
		type searchableBox ;
		min	( 47145.7 -73130.6 0 );
		max	( 47151.0 -73125.9 80 );
	}
	
	BoxRefinement_2-1
	{
		type searchableBox ;
		min	( 46991.2 -72981.8 71.1 );
		max	( 46996.2 -72980.0 71.5 );
	}
	BoxRefinement_2-2
	{
		type searchableBox ;
		min	( 47021.6 -73129.5 73.7 );
		max	( 47024.9 -73128.7 74.1 );
	}
	BoxRefinement_2-3
	{
		type searchableBox ;
		min	( 47049.8 -73008.7 69.2 );
		max	( 47050.1 -73007.6 69.6 );
	}
	BoxRefinement_3-1
	{
		type searchableBox ;
		min	( 46962 -73168.5 75 );
		max	( 46963 -73167.5 77 );
	}
};

castellatedMeshControls
{
    maxLocalCells   200000000;
    maxGlobalCells  300000000;
    minRefinementCells 0;//20;
    nCellsBetweenLevels 1;//4;
    maxLoadUnbalance 0.1;
    allowFreeStandingZoneFaces true;
	  resolveFeatureAngle	30;

	features
	(
	{
		file "terrain_wadayama.eMesh" ;
		level 3;
	}
	);

	refinementSurfaces
	{
		terrain_wadayama
		{
			level (0 3);
			regions
			{
				wall
				{
      			    level (0 3);
					//status 1 ;
				}
				roof
				{
      			    level (0 3);
					//status 1 ;
				}
				ground
				{
      			    level (0 3);
					//status 1 ;
				}
			}
		}
	}
  refinementRegions
	{
	}

	refinementRegions
	{
		BoxRefinement_1
		{
			mode	inside;
			levels	((1E15 4));
		}
		BoxRefinement_2
		{
			mode	inside;
			levels	((1E15 4));
		}
		BoxRefinement_3
		{
			mode	inside;
			levels	((1E15 4));
		}
		BoxRefinement_4
		{
			mode	inside;
			levels	((1E15 4));
		}
		BoxRefinement_5
		{
			mode	inside;
			levels	((1E15 4));
		}
		
		BoxRefinement_2-1
		{
			mode	inside;
			levels	((1E15 5));
		}
		BoxRefinement_2-2
		{
			mode	inside;
			levels	((1E15 5));
		}
		BoxRefinement_2-3
		{
			mode	inside;
			levels	((1E15 5));
		}
		BoxRefinement_3-1
		{
			mode	inside;
			levels	((1E15 4));
		}
	}

  locationInMesh ( 46881  -73150 120 );//( -1 0 2 ) ;
}

snapControls
{
    tolerance       2;
    implicitFeatureSnap false;
    explicitFeatureSnap true;
    multiRegionFeatureSnap true;
    detectNearSurfacesSnap true;
    strictRegionSnap true;
    nSmoothPatch    3;
    nSolveIter      50;
    nRelaxIter      5;
    nFeatureSnapIter 10;
    nSmoothInternal 3;
    nFaceSplitInterval -1;
}


addLayersControls
{
	layers
	{
		roof
		{
			nSurfaceLayers 3;
			//firstLayerThickness 0.1;
			//expansionRatio 1.2;
		}
		wall
		{
			nSurfaceLayers 3;
			//firstLayerThickness 0.1;
			//expansionRatio 1.2;
		}
		ground
		{
			nSurfaceLayers 3;
			//firstLayerThickness 0.1;
			//expansionRatio 1.2;
		}
	}
	relativeSizes    true;
	expansionRatio    1.2 ;
	firstLayerThickness   0.1 ;
    featureAngle    180;
    slipFeatureAngle 30;
    nGrow           0;
    nBufferCellsNoExtrude 0;
    minMedialAxisAngle 90;
    maxFaceThicknessRatio 0.2;
    maxThicknessToMedialRatio 0.3;
    minThickness    1e-06;
    nLayerIter      50;
    nRelaxIter      5;
    nSmoothSurfaceNormals 10;
    nSmoothNormals  3;
    nSmoothThickness 10;
    nRelaxedIter    10;
    nMedialAxisIter 10;
}

meshQualityControls
{
    minVol          1e-13;
    minTetQuality   1e-16;
    minArea         1e-13;
    minTwist        0.05;
    minDeterminant  1e-06;
    minFaceWeight   0.02;
    minVolRatio     0.01;
    minTriangleTwist -1;
    minFlatness     0.5;
    maxNonOrtho     70;
    maxBoundarySkewness 20;
    maxInternalSkewness 4;
    maxConcave      80;
    nSmoothScale    4;
    errorReduction  0.75;

    relaxed
    {
        minVol          1e-30;
        minTetQuality   1e-30;
        minArea         1e-30;
        minTwist        0.001;
        minDeterminant  1e-06;
        minFaceWeight   1e-06;
        minVolRatio     0.01;
        minTriangleTwist -1;
        minFlatness     0.5;
        maxNonOrtho     75;
        maxBoundarySkewness 20;
        maxInternalSkewness 8;
        maxConcave      80;
        nSmoothScale    4;
        errorReduction  0.75;
    }
}
mergeTolerance  1e-04;//1e-07;
debug           0;
