/*--------------------------------*- C++ -*----------------------------------*\
| =========                 |                                                 |
| \\      /  F ield         | OpenFOAM: The Open Source CFD Toolbox           |
|  \\    /   O peration     | Version:  2112                                  |
|   \\  /    A nd           | Website:  www.openfoam.com                      |
|    \\/     M anipulation  |                                                 |
\*---------------------------------------------------------------------------*/
FoamFile
{
    version     2.0;
    format      ascii;
    arch        "LSB;label=32;scalar=64";
    class       extendedFeatureEdgeMesh;
    location    "constant/extendedFeatureEdgeMesh";
    object      twoLevelsFlat_roofBuilding.extendedFeatureEdgeMesh;
}
// * * * * * * * * * * * * * * * * * * * * * * * * * * * * * * * * * * * * * //

// points

12
(
(4.5 2.7 0.89999998)
(4.5 -2.7 0.89999998)
(1.8 2.7 1.8)
(1.8 -2.7 1.8)
(0 -2.7 1.8)
(4.5 -2.7 0)
(0 -2.7 0)
(4.5 2.7 0)
(1.8 2.7 0.89999998)
(1.8 -2.7 0.89999998)
(0 2.7 1.8)
(0 2.7 0)
)

// edges

18
(
(9 8)
(11 10)
(0 1)
(8 0)
(1 9)
(2 3)
(10 2)
(3 4)
(4 10)
(1 5)
(5 6)
(6 4)
(3 9)
(0 7)
(7 5)
(2 8)
(7 11)
(11 6)
)

// concaveStart mixedStart nonFeatureStart
0 8 12
// internalStart flatStart openStart multipleStart
2 18 18 18
// normals

20
(
(-0 -0 -1)
(-1 -0 -0)
(0 1 0)
(0 0 -1)
(0 1 0)
(-1 0 0)
(-0 -0 -1)
(-1 -0 -0)
(-0 1 0)
(0 0 -1)
(-0 1 0)
(-1 0 0)
(0 1 0)
(-1 0 0)
(0 1 0)
(0 0 1)
(0 1 0)
(-1 0 0)
(0 0 1)
(0 1 0)
)

// normal volume types

20
(
0
0
0
0
0
0
0
0
0
0
0
0
0
0
0
0
0
0
0
0
)

// normalDirections

18
(
2(1 -1)
2(1 -1)
2(1 -1)
2{1}
2(1 -1)
2(1 -1)
2{1}
2(1 -1)
2{1}
2(1 -1)
2(1 -1)
2{1}
2(1 -1)
2{1}
2(1 -1)
2{1}
2{1}
2{1}
)

// edgeNormals

18
(
2(3 5)
2(12 11)
2(0 1)
2(0 2)
2(3 4)
2(6 7)
2(6 8)
2(9 10)
2(9 11)
2(4 13)
2(14 15)
2(16 17)
2(10 5)
2(1 2)
2(13 18)
2(7 8)
2(18 19)
2(15 17)
)

// featurePointNormals

12
(
3(0 1 2)
3(0 1 4)
3(6 7 8)
3(6 7 10)
3(9 10 11)
3(4 13 15)
3(14 15 17)
3(1 2 18)
3(3 5 2)
3(3 5 4)
3(12 11 6)
3(12 11 18)
)

// featurePointEdges

12
(
3(2 13 3)
3(4 9 2)
3(5 15 6)
3(7 12 5)
3(7 11 8)
3(10 14 9)
3(11 17 10)
3(14 16 13)
3(0 15 3)
3(4 12 0)
3(8 1 6)
3(17 1 16)
)

// regionEdges
8(2 3 4 0 5 6 7 8)


// ************************************************************************* //
